New circuit.SW_Grid basekv=11 bus1=Source